Version 4.1
SHEET 1 1304 680
WIRE 352 -192 128 -192
WIRE 752 -192 432 -192
WIRE 880 -192 752 -192
WIRE 128 -96 128 -112
WIRE 128 -80 128 -96
WIRE 880 -80 880 -192
WIRE 352 -32 128 -32
WIRE 752 -32 752 -192
WIRE 752 -32 432 -32
WIRE 880 16 880 0
WIRE 128 80 128 48
WIRE 128 96 128 80
WIRE 128 128 128 112
WIRE 400 128 128 128
WIRE 752 128 752 -32
WIRE 752 128 480 128
WIRE 880 128 880 96
WIRE 128 144 128 128
WIRE 128 240 128 192
WIRE 128 256 128 240
FLAG 128 240 0
FLAG 128 -96 0
FLAG 128 80 0
FLAG 880 128 0
SYMBOL voltage 128 96 R0
WINDOW 123 0 0 Left 0
WINDOW 39 0 0 Left 0
SYMATTR InstName V1
SYMATTR Value PWL file=ecg.txt
SYMBOL voltage 128 -48 R0
WINDOW 123 0 0 Left 0
WINDOW 39 0 0 Left 0
SYMATTR InstName V2
SYMATTR Value SINE(0 0.01 60 0 0 0)
SYMBOL voltage 128 -208 R0
WINDOW 123 0 0 Left 0
WINDOW 39 0 0 Left 0
SYMATTR InstName V3
SYMATTR Value SINE(0 0.1 0.3 0 0 0)
SYMBOL res 448 -208 R90
WINDOW 0 0 56 VBottom 2
WINDOW 3 32 56 VTop 2
SYMATTR InstName R1
SYMATTR Value 1000
SYMBOL res 448 -48 R90
WINDOW 0 0 56 VBottom 2
WINDOW 3 32 56 VTop 2
SYMATTR InstName R2
SYMATTR Value 1000
SYMBOL res 496 112 R90
WINDOW 0 0 56 VBottom 2
WINDOW 3 32 56 VTop 2
SYMATTR InstName R3
SYMATTR Value 1000
SYMBOL res 864 -96 R0
SYMATTR InstName R4
SYMATTR Value 4000
SYMBOL res 864 0 R0
SYMATTR InstName R6
SYMATTR Value 10
TEXT 328 104 Left 2 !.tran 0 2.4 0 0.001
